/*--------------------------------*- C++ -*----------------------------------*\
  =========                 |
  \\      /  F ield         | OpenFOAM: The Open Source CFD Toolbox
   \\    /   O peration     | Website:  https://openfoam.org
    \\  /    A nd           | Version:  11
     \\/     M anipulation  |
\*---------------------------------------------------------------------------*/
FoamFile
{
    format      ascii;
    class       polyBoundaryMesh;
    location    "constant/polyMesh";
    object      boundary;
}
// * * * * * * * * * * * * * * * * * * * * * * * * * * * * * * * * * * * * * //

6
(
    down
    {
        type            symmetryPlane;
        inGroups        List<word> 1(symmetryPlane);
        nFaces          240;
        startFace       15680;
    }
    up
    {
        type            wall;
        inGroups        List<word> 1(wall);
        nFaces          220;
        startFace       15920;
    }
    right
    {
        type            patch;
        nFaces          40;
        startFace       16140;
    }
    left
    {
        type            patch;
        nFaces          20;
        startFace       16180;
    }
    nozzle
    {
        type            wall;
        inGroups        List<word> 1(wall);
        nFaces          120;
        startFace       16200;
    }
    defaultFaces
    {
        type            empty;
        inGroups        List<word> 1(empty);
        nFaces          16000;
        startFace       16320;
    }
)

// ************************************************************************* //
