/*--------------------------------*- C++ -*----------------------------------*\
  =========                 |
  \\      /  F ield         | OpenFOAM: The Open Source CFD Toolbox
   \\    /   O peration     | Website:  https://openfoam.org
    \\  /    A nd           | Version:  11
     \\/     M anipulation  |
\*---------------------------------------------------------------------------*/
FoamFile
{
    format      ascii;
    class       volScalarField;
    object      T;
}
// * * * * * * * * * * * * * * * * * * * * * * * * * * * * * * * * * * * * * //

dimensions      [0 0 0 1 0 0 0];

internalField   uniform 273;
Temperature1   uniform 473;
Temperature2   uniform 373;

boundaryField
{
    patch1
    {
        type            zeroGradient;
    }

    down
    {
        type            fixedValue;
        value           uniform 473;
    }

    patch3
    {
        type            zeroGradient;
    }

    patch4
    {
        type            fixedValue;
        value           uniform 573;
    }
}

// ************************************************************************* //
