/*--------------------------------*- C++ -*----------------------------------*\
  =========                 |
  \\      /  F ield         | OpenFOAM: The Open Source CFD Toolbox
   \\    /   O peration     | Website:  https://openfoam.org
    \\  /    A nd           | Version:  11
     \\/     M anipulation  |
\*---------------------------------------------------------------------------*/
FoamFile
{
    format      ascii;
    class       volScalarField;
    object      p;
}
// * * * * * * * * * * * * * * * * * * * * * * * * * * * * * * * * * * * * * //

dimensions      [0 2 -2 0 0 0 0];

internalField   uniform 0;

boundaryField
{
    inlet
    {
        type            zeroGradient; // Condição de contorno de gradiente zero na entrada
    }
    outlet
    {
        type            fixedValue;
        value           uniform 0; // Pressão de referência na saída
    }
    frontAndBack
    {
        type            empty;
    }
    walls
    {
        type            zeroGradient; // Condição de contorno de gradiente zero nas paredes
    }
}

// ************************************************************************* //
